
.subckt DESIGN_icn_ckt 1 2 
* Display all elements first 
TidlPart_23 1 0 2 0 z0=50 Td=5e-09 R=1e-5 
.ends DESIGN_icn_ckt
