**$ENCRYPTED_LIB
**$INTERFACE
* PSpice Model Editor - Version 16.0.0
*$
* TPS40170
*****************************************************************************
* (C) Copyright 2011 Texas Instruments Incorporated. All rights reserved.
*****************************************************************************
** This model is designed as an aid for customers of Texas Instruments.
** TI and its licensors and suppliers make no warranties, either expressed
** or implied, with respect to this model, including the warranties of
** merchantability or fitness for a particular purpose. The model is
** provided solely on an "as is" basis. The entire risk as to its quality
** and performance is with the customer
*****************************************************************************
*
** Released by: Analog eLab Design Center, Texas Instruments Inc.
* Part: TPS40170
* Date: 06OCT2011
* Model Type: Average 
* Simulator: PSpice
* Simulator Version: 16.0.0.p001
* EVM Order Number: TPS40170EVM-578  
* EVM Users Guide: SLVU436  January 2011
* Datasheet: SLUS970  February 2011
* Model Version: Final 1.10
*
*****************************************************************************
*
* Updates:
*
* Final 1.10
* Modified Min ON Time constraint
*
* Final 1.00
* Release to Web.
*
***************************************************************************
.SUBCKT TPS40170_AVG FB SW COMP VIN GND PARAMS: L=8.2u FS=300k
$CDNENCSTART
eee8c5c7a2bc4b01f045f303678664e7916da0bae22e8cb0bba041dd67c69ce448ea70148a9ac1670c8926c1ac5057c8ccfcd77bf87ca9dc02cd40999b8ea736
b0eb42ca922cce592fbfcc2b872ff946b1c139a1b55f6058749d13634498f34bded2200c6a0ec33563c8d307ce02f53d0998e21959250b621aabfa10941d45cf
f0141b5f35912e420abfc569c2f155643167b2f6711602edd1cd99e55c47efea33ece1037c55a0bf1933952b4dcad44c28d045ec092e4523792399f0d238bc9e
2a76c18f665e8c27dffad4255220698b15f86bd3fb9e52c531b94787e0b1866680dde26ce80b7abce5249bf448dad1a64cb27d03859ab9e84e832f01881c4bd3
317f1bcb1e5ac862c702d572f128fcccbead6d759883348278d25f15841665b0a95ae75161a45488cbf970a108e5e0ec4fb37be2b5aca409637c9e8d31547f12
$CDNENCFINISH
.ENDS TPS40170_AVG
*$
.SUBCKT PWMVM a c p d params: L=2096u Fs=300k
$CDNENCSTART
eee8c5c7a2bc4b01f045f303678664e7916da0bae22e8cb0bba041dd67c69ce448ea70148a9ac1670c8926c1ac5057c8ccfcd77bf87ca9dc02cd40999b8ea736
2d3b9fca4ffa6672ccff27c83c082f3d5d26d459fbd69728b80cd5777d347216311b9ddaba6372d1ad3e968a75454fc7d8db28fdc5a331b2c98a88cd83eb6576
a19e9fa60edb9db5431581c28553887f1ca8e1653828eb061449427e3e1c84e200f53d1e4cdb6958a95ae75161a45488cbf970a108e5e0ec2671db96a9d5fd3c
9d5e08809cb19895643186adf28c2f1051a259088b8c2cb331c4d7db2e7eb049a9cf375d6752b212a95ae75161a45488cbf970a108e5e0ec2671db96a9d5fd3c
4fb0f9254cd7db3967fead0ddb902c39d97d25a985bf7f126813f5506ef36183e5249bf448dad1a64cb27d03859ab9e838d7c815dfc6585488063ca71bdd9323
8f481e5411cd528e800d98744678c7f8db8075eca3ae1e7b867749e3d7d1f82ee71f71e187584171e77438b32daad20f90828a1316423048a48606595dad40cb
a3a0daf5dc6015381d06e927cb860216e5249bf448dad1a64cb27d03859ab9e838d7c815dfc658541c45ee9312261bdf46dff04d0e7180a7bafba5a1fb63422a
50cef4055e5c2c7b399d8e5c521685102e040c805502f9bc1491a4183f1f2340db1bdae88b019e9bc22514881b5c14dff32e017b8afd859633840fbd367cce73
$CDNENCFINISH
.ENDS
*$
.subckt L1 d dc a p Fsv params: clampH=0.89
$CDNENCSTART
eee8c5c7a2bc4b01f045f303678664e7916da0bae22e8cb0bba041dd67c69ce448ea70148a9ac1670c8926c1ac5057c8ccfcd77bf87ca9dc02cd40999b8ea736
c56f677e65f3ad8e9b8d3130ea3e2a383e06550e4a1b0060ab98fd2ea7f41f9bb80cd5777d347216311b9ddaba6372d1ad3e968a75454fc772f8c9123a43537c
81c9eb8fab1111b0b55dfc16bf7572cfc22b691d5dc01b49cf9b0232c329e27cabac7f4b6a3fb0592c44412baa8eff00afd84b3b203117a716a9ad45d962d0b3
a6ff93f8571e01e1bd70355cf732faca73d85d03d3251e925d7cbd15a580ea4e510f0c344c0b0d0b34916744c64c21691f54832c4509b4afc1cda0524afbcf9b
2acd3b787de8b677d151a2c49c0d52324d9705494cdd2f90e060963a0d8908ba764e4da923d3bb7cc1818c749007dd1f8d458837e15ca7d479b9419058089e5c
8af0c6fb1f826280ae88c151cbc3628c74a3eb324cd6e438653dce39328948f43bb4372438b8fa6b3dd0fa51815e3e86efc74d738c0b530e2c4d30c6b56805d3
e6ed809715001e26e5731a3e77a31bb5247e20ee2ef096db653dce39328948f43bb4372438b8fa6b3dd0fa51815e3e86efc74d738c0b530e2c4d30c6b56805d3
61636c3c2acbfe8476df65a09b7a8e22247e20ee2ef096db653dce39328948f43bb4372438b8fa6b3dd0fa51815e3e86efc74d738c0b530e2c4d30c6b56805d3
f8c9f560b3c18d7ea8b52c4e54675af830492649e65578e5399d8e5c521685102e040c805502f9bc1491a4183f1f2340db1bdae88b019e9b26a4086cb720e3a2
0697746efb67a3a3dd93dd4e2bdeb3ffedc9009d61ec0e9c644126c9831a96bde77438b32daad20f90828a1316423048c5bde19f001165ccbbc68bb22fffe868
$CDNENCFINISH
.ENDS
*$
.subckt L2 d2nc d d2c
*
$CDNENCSTART
eee8c5c7a2bc4b01f045f303678664e7916da0bae22e8cb0bba041dd67c69ce448ea70148a9ac1670c8926c1ac5057c8ccfcd77bf87ca9dc02cd40999b8ea736
bb7af8e15ee57e2867b07cd3aebfdc2fcc12c3259770788ec22b691d5dc01b49cf9b0232c329e27cabac7f4b6a3fb0592c44412baa8eff00fbcfd8e5b77ecc6f
6d76c9890b4a0fd97f58485d7f1f6db6a95ae75161a45488cbf970a108e5e0ec4fb37be2b5aca409484b093e5cc5f5c304a21e9eaece12482abbbf053830fe4e
24183331402957bc9aaad73c40ae5ac1b80cd5777d347216311b9ddaba6372d1ad3e968a75454fc7d8db28fdc5a331b223f4dfa11a7bde2e14bea35928a89ece
210316ba3aa16170f205d78b8885a6c9362fa9391436d0b14d5b1b73307b130314e622fdb1305c49efdce63e6fa44d6372f92c154c916517ff7040fcd9684851
e6ed809715001e260622659a662d9edd7d9e02df9354324914e622fdb1305c49efdce63e6fa44d6372f92c154c916517a9c1b9415c7e4b22ca53666cb0b418c6
6afd3d0d48e52f3dfe9cf82d60f29d797d9e02df9354324914e622fdb1305c49efdce63e6fa44d6372f92c154c916517a9c1b9415c7e4b22ca53666cb0b418c6
6a45c5a00ce13aafccff27c83c082f3d8c23f7ffa1e7df06e71f71e187584171e77438b32daad20f90828a1316423048c5bde19f001165ccbbc68bb22fffe868
0697746efb67a3a3dd93dd4e2bdeb3ffedc9009d61ec0e9c644126c9831a96bde77438b32daad20f90828a1316423048c5bde19f001165ccbbc68bb22fffe868
$CDNENCFINISH
.ENDS
*$
.SUBCKT LDCR IN OUT
+ PARAMs:  L=1u DCR=0.01 
$CDNENCSTART
eee8c5c7a2bc4b01f045f303678664e7916da0bae22e8cb0bba041dd67c69ce448ea70148a9ac1670c8926c1ac5057c8ccfcd77bf87ca9dc02cd40999b8ea736
264144965b4befeddc5a1b22284dea7f2d4b99c571e6b654e5249bf448dad1a64cb27d03859ab9e838d7c815dfc658541c45ee9312261bdfd39bc8d2144f3b88
eca920dce3ff5fa4e99db6fbe6c19b3ee5249bf448dad1a64cb27d03859ab9e838d7c815dfc658541c45ee9312261bdf46dff04d0e7180a7bafba5a1fb63422a
$CDNENCFINISH
.ENDS
*$
.SUBCKT CESR IN OUT
+ PARAMs:  C=100u ESR=0.01 X=2 
$CDNENCSTART
eee8c5c7a2bc4b01f045f303678664e7916da0bae22e8cb0bba041dd67c69ce448ea70148a9ac1670c8926c1ac5057c8ccfcd77bf87ca9dc02cd40999b8ea736
e1672f4adc29770800efc9dbe19b7b53a95ae75161a45488cbf970a108e5e0ec4fb37be2b5aca409484b093e5cc5f5c304a21e9eaece12482abbbf053830fe4e
103083d7a6d047eb2989a19c26e45d932985cbba7e27b38d653dce39328948f43bb4372438b8fa6b3dd0fa51815e3e86efc74d738c0b530e2c4d30c6b56805d3
$CDNENCFINISH
.ENDS
*$


